/*--------------------------------*- C++ -*----------------------------------*\
| =========                 |                                                 |
| \\      /  F ield         | OpenFOAM: The Open Source CFD Toolbox           |
|  \\    /   O peration     | Version:  2412                                  |
|   \\  /    A nd           | Website:  www.openfoam.com                      |
|    \\/     M anipulation  |                                                 |
\*---------------------------------------------------------------------------*/
FoamFile
{
    version     2.0;
    format      ascii;
    arch        "LSB;label=32;scalar=64";
    class       featureEdgeMesh;
    location    "constant/triSurface";
    object      wall1.eMesh;
}
// * * * * * * * * * * * * * * * * * * * * * * * * * * * * * * * * * * * * * //


// points:

111
(
(0.278858 0.34537 0.130423)
(0.25145 0.369019 0.117834)
(0.256326 0.309817 0.0842228)
(0.276832 0.31144 0.165871)
(0.302554 0.363249 0.166853)
(0.262985 0.272513 0.138264)
(0.25455 0.238827 0.159977)
(0.452295 -0.0674374 0.178934)
(0.501199 0.489787 0.243681)
(0.547575 0.465438 0.252871)
(0.310881 0.0398471 0.190407)
(0.347766 0.0024249 0.171129)
(0.907669 -0.37153 -0.112345)
(0.375781 -0.0146096 0.20281)
(0.68866 0.0438909 0.154575)
(0.787235 -0.297214 -0.405067)
(0.737098 -0.218602 -0.156729)
(0.728315 -0.216275 -0.200048)
(0.725689 -0.219785 -0.24814)
(0.73002 -0.229678 -0.294243)
(0.758387 -0.233417 -0.118074)
(0.789332 -0.259072 -0.0940589)
(-1.14011 0.307197 -0.0312234)
(-1.13756 0.352985 -0.030058)
(-1.14004 0.2647 -0.0175744)
(-1.13223 0.396572 -0.0112344)
(-1.0864 0.285164 0.301815)
(-1.08899 0.238155 0.30072)
(-1.09359 0.194795 0.286302)
(-1.12485 0.431188 0.0227832)
(0.547269 -0.0366165 0.192318)
(0.495893 -0.0548641 0.195169)
(0.40128 0.452977 0.211834)
(0.455678 0.466223 0.238466)
(-1.09991 0.162771 0.2579)
(0.603187 0.456958 0.238674)
(0.646104 0.435531 0.224878)
(0.912433 -0.39821 -0.284964)
(0.919473 -0.399196 -0.241812)
(0.850006 -0.314115 -0.0831317)
(0.82057 -0.286889 -0.0843696)
(0.271688 0.0873763 0.17099)
(0.251359 0.144971 0.168747)
(0.247476 0.196005 0.157318)
(-1.11636 0.451765 0.0678863)
(0.635228 0.0185918 0.166168)
(0.588618 -0.010234 0.178841)
(-1.1329 0.162349 0.0577334)
(-1.13662 0.19214 0.0258483)
(-1.1002 0.459184 0.163761)
(-1.09356 0.440031 0.210018)
(-1.10777 0.460996 0.117222)
(-1.08922 0.408447 0.24621)
(0.414104 -0.0421593 0.197676)
(-1.08541 0.328197 0.294369)
(-1.13878 0.228475 0.00137892)
(0.880719 -0.343261 -0.0875511)
(0.915429 -0.384187 -0.15455)
(0.669037 0.409066 0.222586)
(0.723646 0.0858068 0.166655)
(0.734938 0.13075 0.175617)
(0.72197 0.327533 0.216555)
(0.734097 0.28165 0.2103)
(-1.08628 0.370939 0.275799)
(0.85493 -0.35823 -0.389896)
(0.880425 -0.378686 -0.36454)
(0.920021 -0.39421 -0.199184)
(0.736703 0.230794 0.196833)
(0.7355 0.182376 0.188026)
(-1.12778 0.144447 0.0944022)
(-1.121 0.13797 0.137569)
(-1.10726 0.146694 0.218269)
(-1.11396 0.140386 0.179602)
(0.822492 -0.329923 -0.4044)
(0.759909 -0.268046 -0.376032)
(0.741881 -0.246463 -0.338694)
(0.366853 0.42372 0.203764)
(0.696155 0.381894 0.214714)
(0.899325 -0.391187 -0.325094)
(0.332098 0.396195 0.185514)
(0.258727 0.0413443 -0.102587)
(0.227863 0.00320111 -0.104443)
(0.362713 -0.496547 -0.0463219)
(0.360522 -0.47499 -0.0824222)
(0.269322 0.308547 0.115513)
(0.252314 0.340346 0.100281)
(0.278746 0.392422 0.138777)
(0.250243 0.297988 0.0518494)
(0.258139 0.281756 0.0136261)
(0.348063 -0.463992 -0.126801)
(0.38923 -0.518434 -0.0772571)
(0.381395 -0.498719 -0.117384)
(0.365769 -0.48916 -0.158375)
(0.326532 -0.468501 -0.168804)
(0.291034 -0.481836 -0.206671)
(0.347607 -0.49319 -0.196177)
(0.270293 0.0468737 0.000486384)
(0.275353 0.0752016 -0.0552463)
(0.306242 0.412669 0.156822)
(0.3379 0.439952 0.177183)
(0.364369 0.46197 0.191216)
(0.218772 0.305567 0.0192738)
(0.213496 0.328381 0.0672112)
(0.415899 -0.0736115 0.16124)
(0.375481 -0.0345796 0.156952)
(0.341937 -0.0108636 0.136385)
(0.274368 0.277026 -0.0693912)
(0.27021 0.270661 -0.0248051)
(0.229069 0.295939 -0.0344353)
(0.233842 0.307648 -0.0926056)
(0.270097 0.0241591 0.0554924)
)


// edges:

104
(
(80 81)
(82 83)
(0 84)
(4 0)
(1 85)
(86 1)
(85 2)
(2 87)
(87 88)
(89 83)
(90 91)
(91 92)
(89 93)
(94 93)
(92 95)
(96 97)
(86 98)
(99 100)
(98 99)
(101 102)
(103 104)
(104 105)
(106 107)
(108 101)
(107 88)
(108 109)
(96 110)
(16 17)
(17 18)
(18 19)
(20 16)
(21 20)
(3 4)
(5 3)
(22 23)
(24 22)
(23 25)
(26 27)
(27 28)
(6 5)
(25 29)
(30 31)
(31 7)
(32 33)
(33 8)
(28 34)
(9 35)
(8 9)
(35 36)
(37 38)
(39 40)
(40 21)
(10 41)
(41 42)
(43 6)
(42 43)
(29 44)
(11 10)
(45 46)
(46 30)
(47 48)
(49 50)
(51 49)
(50 52)
(7 53)
(54 26)
(55 24)
(48 55)
(12 56)
(57 12)
(56 39)
(36 58)
(13 11)
(53 13)
(14 45)
(59 14)
(60 59)
(61 62)
(52 63)
(63 54)
(64 65)
(66 57)
(38 66)
(62 67)
(67 68)
(68 60)
(69 47)
(70 69)
(34 71)
(71 72)
(72 70)
(73 64)
(74 15)
(75 74)
(19 75)
(76 32)
(77 61)
(58 77)
(15 73)
(65 78)
(78 37)
(44 51)
(79 76)
(4 79)
)

// * * * * * * * * * * * * * * * * * * * * * * * * * * * * * * * * * * * * * //


// ************************************************************************* //
