/*--------------------------------*- C++ -*----------------------------------*\
| =========                 |                                                 |
| \\      /  F ield         | OpenFOAM: The Open Source CFD Toolbox           |
|  \\    /   O peration     | Version:  2412                                  |
|   \\  /    A nd           | Website:  www.openfoam.com                      |
|    \\/     M anipulation  |                                                 |
\*---------------------------------------------------------------------------*/
FoamFile
{
    version     2.0;
    format      ascii;
    arch        "LSB;label=32;scalar=64";
    class       extendedFeatureEdgeMesh;
    location    "constant/extendedFeatureEdgeMesh";
    object      inlet1.extendedFeatureEdgeMesh;
}
// * * * * * * * * * * * * * * * * * * * * * * * * * * * * * * * * * * * * * //

// points

21
(
(0.907669 -0.37153 -0.112345)
(0.787235 -0.297214 -0.405067)
(0.728315 -0.216275 -0.200048)
(0.737098 -0.218602 -0.156729)
(0.725689 -0.219785 -0.24814)
(0.73002 -0.229678 -0.294243)
(0.758387 -0.233417 -0.118074)
(0.789332 -0.259072 -0.0940589)
(0.919473 -0.399196 -0.241812)
(0.912433 -0.39821 -0.284964)
(0.82057 -0.286889 -0.0843696)
(0.850006 -0.314115 -0.0831317)
(0.880719 -0.343261 -0.0875511)
(0.915429 -0.384187 -0.15455)
(0.880425 -0.378686 -0.36454)
(0.85493 -0.35823 -0.389896)
(0.920021 -0.39421 -0.199184)
(0.822492 -0.329923 -0.4044)
(0.741881 -0.246463 -0.338694)
(0.759909 -0.268046 -0.376032)
(0.899325 -0.391187 -0.325094)
)

// edges

21
(
(2 3)
(4 2)
(5 4)
(3 6)
(6 7)
(8 9)
(10 11)
(7 10)
(12 0)
(0 13)
(11 12)
(14 15)
(13 16)
(16 8)
(17 1)
(15 17)
(18 5)
(19 18)
(1 19)
(20 14)
(9 20)
)

// concaveStart mixedStart nonFeatureStart
0 0 2
// internalStart flatStart openStart multipleStart
0 0 0 21
// normals

21
(
(0.676773 0.729638 -0.0980154)
(0.678191 0.729322 -0.0902602)
(0.678376 0.728846 -0.0926806)
(0.678024 0.728998 -0.0940444)
(0.677767 0.729204 -0.0943053)
(0.677551 0.729461 -0.0938745)
(0.678127 0.728917 -0.0939343)
(0.67819 0.728836 -0.094105)
(0.678167 0.728886 -0.0938909)
(0.678172 0.72888 -0.0938988)
(0.678183 0.728866 -0.0939199)
(0.678158 0.728903 -0.093823)
(0.678151 0.728897 -0.0939176)
(0.67805 0.728984 -0.0939676)
(0.678071 0.728958 -0.0940231)
(0.678088 0.728958 -0.0938941)
(0.678932 0.728186 -0.0937894)
(0.678138 0.728907 -0.0939331)
(0.678104 0.728925 -0.0940425)
(0.678177 0.72887 -0.0939448)
(0.6776 0.729439 -0.0936793)
)

// normal volume types

21
(
0
0
0
0
0
0
0
0
0
0
0
0
0
0
0
0
0
0
0
0
0
)

// normalDirections

21
(
1(1)
1(1)
1(1)
1(1)
1(1)
1(1)
1(1)
1(1)
1(1)
1(1)
1(1)
1(1)
1(1)
1(1)
1(1)
1(1)
1(1)
1(1)
1(1)
1(1)
1(1)
)

// edgeNormals

21
(
1(0)
1(1)
1(2)
1(3)
1(4)
1(5)
1(6)
1(7)
1(8)
1(9)
1(10)
1(11)
1(12)
1(13)
1(14)
1(15)
1(16)
1(17)
1(18)
1(19)
1(20)
)

// featurePointNormals

2
(
1(8)
1(14)
)

// featurePointEdges

2
(
2(8 9)
2(14 18)
)

// regionEdges

21
(
0
1
2
3
4
5
6
7
8
9
10
11
12
13
14
15
16
17
18
19
20
)



// ************************************************************************* //
