/*--------------------------------*- C++ -*----------------------------------*\
| =========                 |                                                 |
| \\      /  F ield         | OpenFOAM: The Open Source CFD Toolbox           |
|  \\    /   O peration     | Version:  2412                                  |
|   \\  /    A nd           | Website:  www.openfoam.com                      |
|    \\/     M anipulation  |                                                 |
\*---------------------------------------------------------------------------*/
FoamFile
{
    version     2.0;
    format      ascii;
    arch        "LSB;label=32;scalar=64";
    class       extendedFeatureEdgeMesh;
    location    "constant/extendedFeatureEdgeMesh";
    object      outlet1.extendedFeatureEdgeMesh;
}
// * * * * * * * * * * * * * * * * * * * * * * * * * * * * * * * * * * * * * //

// points

23
(
(-1.13756 0.352985 -0.030058)
(-1.14011 0.307197 -0.0312234)
(-1.14004 0.2647 -0.0175744)
(-1.13223 0.396572 -0.0112344)
(-1.09359 0.194795 0.286302)
(-1.08899 0.238155 0.30072)
(-1.0864 0.285164 0.301815)
(-1.12485 0.431188 0.0227832)
(-1.1329 0.162349 0.0577334)
(-1.12778 0.144447 0.0944022)
(-1.13662 0.19214 0.0258483)
(-1.121 0.13797 0.137569)
(-1.08541 0.328197 0.294369)
(-1.11636 0.451765 0.0678863)
(-1.1002 0.459184 0.163761)
(-1.10777 0.460996 0.117222)
(-1.09991 0.162771 0.2579)
(-1.08922 0.408447 0.24621)
(-1.09356 0.440031 0.210018)
(-1.13878 0.228475 0.00137892)
(-1.08628 0.370939 0.275799)
(-1.10726 0.146694 0.218269)
(-1.11396 0.140386 0.179602)
)

// edges

23
(
(0 1)
(1 2)
(3 0)
(4 5)
(5 6)
(7 3)
(8 9)
(10 8)
(9 11)
(6 12)
(13 7)
(14 15)
(16 4)
(17 18)
(18 14)
(2 19)
(19 10)
(20 17)
(12 20)
(21 16)
(22 21)
(11 22)
(15 13)
)

// concaveStart mixedStart nonFeatureStart
0 0 0
// internalStart flatStart openStart multipleStart
0 0 0 23
// normals

23
(
(-0.985447 0.05061 0.162274)
(-0.985445 0.0506014 0.162287)
(-0.985448 0.0505951 0.162271)
(-0.985444 0.0506023 0.162296)
(-0.985445 0.0505835 0.162292)
(-0.985447 0.0506009 0.162277)
(-0.985447 0.0506001 0.162276)
(-0.985448 0.050594 0.162273)
(-0.985446 0.0506011 0.162282)
(-0.985447 0.0506166 0.162275)
(-0.985446 0.0505973 0.162282)
(-0.985447 0.0506033 0.162274)
(-0.985448 0.0505863 0.162275)
(-0.985445 0.0505955 0.16229)
(-0.985446 0.0506031 0.162279)
(-0.985447 0.0505979 0.162281)
(-0.985448 0.0505916 0.162275)
(-0.985448 0.0506007 0.162272)
(-0.985447 0.0505917 0.162277)
(-0.985446 0.0505835 0.162289)
(-0.985446 0.0505828 0.162287)
(-0.985446 0.0506011 0.162281)
(-0.985447 0.0505969 0.162279)
)

// normal volume types

23
(
0
0
0
0
0
0
0
0
0
0
0
0
0
0
0
0
0
0
0
0
0
0
0
)

// normalDirections

23
(
1(1)
1(1)
1(1)
1(1)
1(1)
1(1)
1(1)
1(1)
1(1)
1(1)
1(1)
1(1)
1(1)
1(1)
1(1)
1(1)
1(1)
1(1)
1(1)
1(1)
1(1)
1(1)
1(1)
)

// edgeNormals

23
(
1(0)
1(1)
1(2)
1(3)
1(4)
1(5)
1(6)
1(7)
1(8)
1(9)
1(10)
1(11)
1(12)
1(13)
1(14)
1(15)
1(16)
1(17)
1(18)
1(19)
1(20)
1(21)
1(22)
)

// featurePointNormals
0()
// featurePointEdges
0()
// regionEdges

23
(
0
1
2
3
4
5
6
7
8
9
10
11
12
13
14
15
16
17
18
19
20
21
22
)



// ************************************************************************* //
