/*--------------------------------*- C++ -*----------------------------------*\
| =========                 |                                                 |
| \\      /  F ield         | OpenFOAM: The Open Source CFD Toolbox           |
|  \\    /   O peration     | Version:  2412                                  |
|   \\  /    A nd           | Website:  www.openfoam.com                      |
|    \\/     M anipulation  |                                                 |
\*---------------------------------------------------------------------------*/
FoamFile
{
    version     2.0;
    format      ascii;
    arch        "LSB;label=32;scalar=64";
    class       extendedFeatureEdgeMesh;
    location    "constant/extendedFeatureEdgeMesh";
    object      wall2.extendedFeatureEdgeMesh;
}
// * * * * * * * * * * * * * * * * * * * * * * * * * * * * * * * * * * * * * //

// points

33
(
(0.276832 0.31144 0.165871)
(0.262985 0.272513 0.138264)
(0.25455 0.238827 0.159977)
(0.452295 -0.0674374 0.178934)
(0.501199 0.489787 0.243681)
(0.547575 0.465438 0.252871)
(0.375781 -0.0146096 0.20281)
(0.310881 0.0398471 0.190407)
(0.347766 0.0024249 0.171129)
(0.68866 0.0438909 0.154575)
(0.302554 0.363249 0.166853)
(0.495893 -0.0548641 0.195169)
(0.547269 -0.0366165 0.192318)
(0.455678 0.466223 0.238466)
(0.40128 0.452977 0.211834)
(0.603187 0.456958 0.238674)
(0.646104 0.435531 0.224878)
(0.414104 -0.0421593 0.197676)
(0.271688 0.0873763 0.17099)
(0.251359 0.144971 0.168747)
(0.247476 0.196005 0.157318)
(0.588618 -0.010234 0.178841)
(0.635228 0.0185918 0.166168)
(0.366853 0.42372 0.203764)
(0.723646 0.0858068 0.166655)
(0.734938 0.13075 0.175617)
(0.734097 0.28165 0.2103)
(0.72197 0.327533 0.216555)
(0.332098 0.396195 0.185514)
(0.736703 0.230794 0.196833)
(0.7355 0.182376 0.188026)
(0.696155 0.381894 0.214714)
(0.669037 0.409066 0.222586)
)

// edges

33
(
(0 1)
(10 0)
(1 2)
(3 11)
(11 12)
(4 13)
(13 14)
(5 4)
(15 5)
(16 15)
(6 17)
(18 7)
(19 18)
(20 19)
(2 20)
(21 22)
(12 21)
(14 23)
(17 3)
(8 6)
(7 8)
(9 24)
(22 9)
(24 25)
(26 27)
(28 10)
(29 26)
(30 29)
(25 30)
(23 28)
(31 32)
(32 16)
(27 31)
)

// concaveStart mixedStart nonFeatureStart
0 0 10
// internalStart flatStart openStart multipleStart
0 0 0 33
// normals

33
(
(-0.945423 0.325489 0.015255)
(-0.895318 0.444908 -0.0214943)
(-0.968088 0.250309 0.0122721)
(0.0606867 -0.861462 0.504184)
(0.336866 -0.911647 0.235417)
(-0.327775 0.449302 0.831078)
(-0.453008 0.663772 0.595139)
(0.0587373 0.44847 0.891866)
(0.284211 0.55476 0.781963)
(0.475572 0.476396 0.739512)
(-0.547075 -0.804264 0.232097)
(-0.791889 -0.592352 0.148427)
(-0.93154 -0.322249 0.168489)
(-0.987621 -0.0412414 0.151339)
(-0.983332 0.156709 0.092199)
(0.524677 -0.851276 -0.0065764)
(0.551212 -0.832028 0.0624123)
(-0.643437 0.642227 0.416573)
(-0.30348 -0.81925 0.486548)
(-0.611545 -0.782013 0.120286)
(-0.683189 -0.723687 0.0976206)
(0.754572 -0.651778 0.076203)
(0.438062 -0.896807 0.0619599)
(0.944483 -0.273575 0.181958)
(0.892371 0.179413 0.414107)
(-0.772375 0.623239 0.122515)
(0.954788 -0.029405 0.295831)
(0.975712 -0.0624446 0.209968)
(0.978323 -0.0584094 0.198679)
(-0.671974 0.710906 0.207519)
(0.628904 0.442449 0.639311)
(0.604986 0.468493 0.643821)
(0.770621 0.383183 0.509228)
)

// normal volume types

33
(
0
0
0
0
0
0
0
0
0
0
0
0
0
0
0
0
0
0
0
0
0
0
0
0
0
0
0
0
0
0
0
0
0
)

// normalDirections

33
(
1(1)
1(1)
1(1)
1(1)
1(1)
1(1)
1(1)
1(1)
1(1)
1(1)
1(1)
1(1)
1(1)
1(1)
1(1)
1(1)
1(1)
1(1)
1(1)
1(1)
1(1)
1(1)
1(1)
1(1)
1(1)
1(1)
1(1)
1(1)
1(1)
1(1)
1(1)
1(1)
1(1)
)

// edgeNormals

33
(
1(0)
1(1)
1(2)
1(3)
1(4)
1(5)
1(6)
1(7)
1(8)
1(9)
1(10)
1(11)
1(12)
1(13)
1(14)
1(15)
1(16)
1(17)
1(18)
1(19)
1(20)
1(21)
1(22)
1(23)
1(24)
1(25)
1(26)
1(27)
1(28)
1(29)
1(30)
1(31)
1(32)
)

// featurePointNormals

10
(
2(0 1)
2(0 2)
2(2 14)
2(3 18)
2(5 7)
2(7 8)
2(10 19)
2(11 20)
2(19 20)
2(21 22)
)

// featurePointEdges

10
(
2(0 1)
2(0 2)
2(2 14)
2(3 18)
2(5 7)
2(7 8)
2(10 19)
2(11 20)
2(19 20)
2(21 22)
)

// regionEdges

33
(
0
1
2
3
4
5
6
7
8
9
10
11
12
13
14
15
16
17
18
19
20
21
22
23
24
25
26
27
28
29
30
31
32
)



// ************************************************************************* //
