/*--------------------------------*- C++ -*----------------------------------*\
| =========                 |                                                 |
| \\      /  F ield         | OpenFOAM: The Open Source CFD Toolbox           |
|  \\    /   O peration     | Version:  2412                                  |
|   \\  /    A nd           | Website:  www.openfoam.com                      |
|    \\/     M anipulation  |                                                 |
\*---------------------------------------------------------------------------*/
FoamFile
{
    version     2.0;
    format      ascii;
    arch        "LSB;label=32;scalar=64";
    class       extendedFeatureEdgeMesh;
    location    "constant/extendedFeatureEdgeMesh";
    object      wall1.extendedFeatureEdgeMesh;
}
// * * * * * * * * * * * * * * * * * * * * * * * * * * * * * * * * * * * * * //

// points

111
(
(0.278858 0.34537 0.130423)
(0.25145 0.369019 0.117834)
(0.256326 0.309817 0.0842228)
(0.276832 0.31144 0.165871)
(0.302554 0.363249 0.166853)
(0.262985 0.272513 0.138264)
(0.25455 0.238827 0.159977)
(0.452295 -0.0674374 0.178934)
(0.501199 0.489787 0.243681)
(0.547575 0.465438 0.252871)
(0.310881 0.0398471 0.190407)
(0.347766 0.0024249 0.171129)
(0.907669 -0.37153 -0.112345)
(0.375781 -0.0146096 0.20281)
(0.68866 0.0438909 0.154575)
(0.787235 -0.297214 -0.405067)
(0.737098 -0.218602 -0.156729)
(0.728315 -0.216275 -0.200048)
(0.725689 -0.219785 -0.24814)
(0.73002 -0.229678 -0.294243)
(0.758387 -0.233417 -0.118074)
(0.789332 -0.259072 -0.0940589)
(-1.14011 0.307197 -0.0312234)
(-1.13756 0.352985 -0.030058)
(-1.14004 0.2647 -0.0175744)
(-1.13223 0.396572 -0.0112344)
(-1.0864 0.285164 0.301815)
(-1.08899 0.238155 0.30072)
(-1.09359 0.194795 0.286302)
(-1.12485 0.431188 0.0227832)
(0.547269 -0.0366165 0.192318)
(0.495893 -0.0548641 0.195169)
(0.40128 0.452977 0.211834)
(0.455678 0.466223 0.238466)
(-1.09991 0.162771 0.2579)
(0.603187 0.456958 0.238674)
(0.646104 0.435531 0.224878)
(0.912433 -0.39821 -0.284964)
(0.919473 -0.399196 -0.241812)
(0.850006 -0.314115 -0.0831317)
(0.82057 -0.286889 -0.0843696)
(0.271688 0.0873763 0.17099)
(0.251359 0.144971 0.168747)
(0.247476 0.196005 0.157318)
(-1.11636 0.451765 0.0678863)
(0.635228 0.0185918 0.166168)
(0.588618 -0.010234 0.178841)
(-1.1329 0.162349 0.0577334)
(-1.13662 0.19214 0.0258483)
(-1.1002 0.459184 0.163761)
(-1.09356 0.440031 0.210018)
(-1.10777 0.460996 0.117222)
(-1.08922 0.408447 0.24621)
(0.414104 -0.0421593 0.197676)
(-1.08541 0.328197 0.294369)
(-1.13878 0.228475 0.00137892)
(0.880719 -0.343261 -0.0875511)
(0.915429 -0.384187 -0.15455)
(0.669037 0.409066 0.222586)
(0.723646 0.0858068 0.166655)
(0.734938 0.13075 0.175617)
(0.72197 0.327533 0.216555)
(0.734097 0.28165 0.2103)
(-1.08628 0.370939 0.275799)
(0.85493 -0.35823 -0.389896)
(0.880425 -0.378686 -0.36454)
(0.920021 -0.39421 -0.199184)
(0.736703 0.230794 0.196833)
(0.7355 0.182376 0.188026)
(-1.12778 0.144447 0.0944022)
(-1.121 0.13797 0.137569)
(-1.10726 0.146694 0.218269)
(-1.11396 0.140386 0.179602)
(0.822492 -0.329923 -0.4044)
(0.759909 -0.268046 -0.376032)
(0.741881 -0.246463 -0.338694)
(0.366853 0.42372 0.203764)
(0.696155 0.381894 0.214714)
(0.899325 -0.391187 -0.325094)
(0.332098 0.396195 0.185514)
(0.258727 0.0413443 -0.102587)
(0.227863 0.00320111 -0.104443)
(0.362713 -0.496547 -0.0463219)
(0.360522 -0.47499 -0.0824222)
(0.269322 0.308547 0.115513)
(0.252314 0.340346 0.100281)
(0.278746 0.392422 0.138777)
(0.250243 0.297988 0.0518494)
(0.258139 0.281756 0.0136261)
(0.348063 -0.463992 -0.126801)
(0.38923 -0.518434 -0.0772571)
(0.381395 -0.498719 -0.117384)
(0.365769 -0.48916 -0.158375)
(0.326532 -0.468501 -0.168804)
(0.291034 -0.481836 -0.206671)
(0.347607 -0.49319 -0.196177)
(0.270293 0.0468737 0.000486384)
(0.275353 0.0752016 -0.0552463)
(0.306242 0.412669 0.156822)
(0.3379 0.439952 0.177183)
(0.364369 0.46197 0.191216)
(0.218772 0.305567 0.0192738)
(0.213496 0.328381 0.0672112)
(0.415899 -0.0736115 0.16124)
(0.375481 -0.0345796 0.156952)
(0.341937 -0.0108636 0.136385)
(0.274368 0.277026 -0.0693912)
(0.27021 0.270661 -0.0248051)
(0.229069 0.295939 -0.0344353)
(0.233842 0.307648 -0.0926056)
(0.270097 0.0241591 0.0554924)
)

// edges

104
(
(80 81)
(82 83)
(0 84)
(4 0)
(1 85)
(86 1)
(85 2)
(2 87)
(87 88)
(89 83)
(90 91)
(91 92)
(89 93)
(94 93)
(92 95)
(96 97)
(86 98)
(99 100)
(98 99)
(101 102)
(103 104)
(104 105)
(106 107)
(108 101)
(107 88)
(108 109)
(96 110)
(16 17)
(17 18)
(18 19)
(20 16)
(21 20)
(3 4)
(5 3)
(22 23)
(24 22)
(23 25)
(26 27)
(27 28)
(6 5)
(25 29)
(30 31)
(31 7)
(32 33)
(33 8)
(28 34)
(9 35)
(8 9)
(35 36)
(37 38)
(39 40)
(40 21)
(10 41)
(41 42)
(43 6)
(42 43)
(29 44)
(11 10)
(45 46)
(46 30)
(47 48)
(49 50)
(51 49)
(50 52)
(7 53)
(54 26)
(55 24)
(48 55)
(12 56)
(57 12)
(56 39)
(36 58)
(13 11)
(53 13)
(14 45)
(59 14)
(60 59)
(61 62)
(52 63)
(63 54)
(64 65)
(66 57)
(38 66)
(62 67)
(67 68)
(68 60)
(69 47)
(70 69)
(34 71)
(71 72)
(72 70)
(73 64)
(74 15)
(75 74)
(19 75)
(76 32)
(77 61)
(58 77)
(15 73)
(65 78)
(78 37)
(44 51)
(79 76)
(4 79)
)

// concaveStart mixedStart nonFeatureStart
0 3 16
// internalStart flatStart openStart multipleStart
1 27 27 104
// normals

130
(
(-0.843707 0.49901 0.197858)
(-0.811412 0.584472 0.00166127)
(-0.724754 0.656552 -0.208977)
(-0.755714 0.353108 0.551553)
(-0.515039 0.165971 0.840945)
(-0.84293 0.411929 0.346098)
(-0.959634 0.250054 0.128749)
(-0.327147 0.0422 -0.944031)
(-0.280346 -0.293916 -0.913794)
(-0.300588 0.408923 -0.861643)
(0.284679 -0.0380132 0.957869)
(0.273719 -0.329505 0.903606)
(-0.962025 0.269362 0.0441864)
(-0.245557 0.705575 -0.66473)
(0.317158 -0.817943 0.47998)
(-0.00902841 -0.778716 0.627312)
(-0.446772 0.0375847 0.893858)
(-0.176446 0.124799 0.976367)
(0.193367 -0.672095 0.714771)
(0.279405 0.31231 0.907962)
(-0.0263105 0.308724 0.950788)
(0.435727 0.334789 0.835499)
(0.799142 -0.58371 -0.143719)
(-0.1043 -0.0676537 0.992242)
(-0.289749 0.00798184 0.957069)
(-0.794729 -0.568893 0.211582)
(-0.905552 -0.308288 0.291433)
(-0.985027 0.158503 0.0678161)
(-0.972912 -0.0224887 0.230081)
(-0.0654253 0.912436 -0.403956)
(-0.635031 -0.740044 0.22152)
(0.559355 -0.773923 0.296928)
(0.580458 -0.758739 0.295607)
(-0.130176 -0.732011 -0.66874)
(0.0905417 0.924655 0.369886)
(0.148966 0.988739 0.0142635)
(0.092563 0.75568 0.648367)
(-0.182806 -0.748662 0.63725)
(0.256979 0.159065 0.953237)
(-0.273639 -0.453365 -0.848282)
(-0.216068 -0.554209 -0.803845)
(0.405825 -0.35263 0.843183)
(0.706451 -0.631639 0.319309)
(0.00860427 -0.141038 0.989967)
(0.566136 0.429659 0.703479)
(-0.711944 -0.64212 0.284284)
(-0.517085 -0.78351 0.344579)
(0.461925 -0.807117 0.367678)
(0.68812 -0.660755 0.299824)
(0.894887 -0.292115 0.337411)
(0.793892 0.128829 0.594254)
(0.127041 0.620463 0.773877)
(0.202463 0.39367 0.896679)
(0.481728 -0.379 -0.790125)
(0.813229 -0.544305 0.205891)
(0.817395 -0.573294 0.0565619)
(0.843903 -0.0965047 0.527744)
(0.869074 -0.109351 0.482444)
(0.893925 -0.113932 0.433494)
(-0.0410443 -0.900112 -0.433721)
(0.0102896 -0.988638 -0.149963)
(0.0552982 -0.928768 0.366515)
(0.00149209 -0.986995 0.160744)
(-0.00274012 -0.998321 0.057857)
(0.32385 -0.110325 -0.939654)
(-0.438529 0.393496 -0.807994)
(-0.573427 0.558289 -0.599579)
(-0.635856 0.650534 -0.415323)
(-0.422614 0.257611 0.868927)
(0.693969 0.35083 0.628749)
(0.598466 0.395429 0.69676)
(0.0668849 0.0517575 -0.996417)
(0.663908 -0.56003 -0.495573)
(0.732026 -0.589098 -0.342201)
(0.0664275 0.978612 -0.194693)
(-0.587069 0.225862 0.777391)
(-0.670146 0.195361 0.716058)
(-0.777633 0.626894 0.0478725)
(-0.678328 0.571349 -0.461987)
(0.998351 0.0475135 -0.0322281)
(0.784665 0.552054 0.282022)
(-0.971178 0.197468 0.133492)
(-0.741753 -0.0776284 0.666165)
(-0.80946 -0.104523 0.577797)
(-0.648925 -0.411385 0.640045)
(-0.119698 -0.520985 0.845131)
(-0.517105 -0.150828 0.842528)
(-0.00581512 -0.663062 0.748542)
(-0.884404 -0.302964 0.355024)
(-0.492025 -0.455045 0.74219)
(-0.980191 -0.0312022 0.19558)
(-0.490612 -0.784682 0.378912)
(-0.978764 -0.151827 -0.13773)
(-0.472133 -0.842271 0.260133)
(0.725554 0.687357 -0.0333489)
(0.962962 0.00288876 -0.269622)
(0.822709 0.557106 0.113059)
(0.329357 0.871319 0.363768)
(0.732428 0.669634 -0.123041)
(0.221056 0.965045 0.140792)
(0.858991 0.217204 -0.463634)
(0.507438 0.789661 -0.34488)
(0.260222 0.808069 -0.528496)
(0.612858 0.362461 -0.702158)
(0.506919 0.796936 -0.32852)
(0.0323266 0.992089 -0.121303)
(-0.849094 0.498039 0.176061)
(-0.994898 -0.0177017 -0.0993176)
(-0.117224 -0.567304 0.815122)
(-0.635838 0.198831 0.745773)
(-0.151784 -0.394976 0.906066)
(-0.591683 0.216339 0.776601)
(-0.200994 -0.425333 0.882436)
(-0.65646 0.224189 0.720277)
(0.0942234 -0.894878 0.436251)
(-0.521153 -0.791481 0.319308)
(-0.381198 -0.298624 0.874935)
(-0.632568 -0.601429 0.487996)
(-0.619125 -0.222595 0.753084)
(-0.675558 -0.643702 0.35954)
(-0.487276 -0.856979 -0.167776)
(-0.945608 -0.297894 -0.130706)
(0.10934 -0.974556 0.195668)
(-0.510862 -0.857847 0.0558451)
(-0.534721 -0.84169 0.075045)
(-0.950326 -0.195795 -0.241961)
(-0.510134 -0.834124 -0.209762)
(0.0980523 -0.977138 -0.188644)
(-0.983326 -0.16682 -0.0723916)
(-0.842016 0.499664 0.203335)
)

// normal volume types

130
(
0
0
0
0
0
0
0
0
0
0
0
0
0
0
0
0
0
0
0
0
0
0
0
0
0
0
0
0
0
0
0
0
0
0
0
0
0
0
0
0
0
0
0
0
0
0
0
0
0
0
0
0
0
0
0
0
0
0
0
0
0
0
0
0
0
0
0
0
0
0
0
0
0
0
0
0
0
0
0
0
0
0
0
0
0
0
0
0
0
0
0
0
0
0
0
0
0
0
0
0
0
0
0
0
0
0
0
0
0
0
0
0
0
0
0
0
0
0
0
0
0
0
0
0
0
0
0
0
0
0
)

// normalDirections

104
(
2(1 -1)
2(1 -1)
2(1 -1)
2(1 -1)
2(1 -1)
2(1 -1)
2(1 -1)
2(1 -1)
2(1 -1)
2(1 -1)
2(1 -1)
2(1 -1)
2(1 -1)
2(1 -1)
2(1 -1)
2(1 -1)
2(1 -1)
2(1 -1)
2(1 -1)
2(1 -1)
2(1 -1)
2(1 -1)
2(1 -1)
2(1 -1)
2(1 -1)
2(1 -1)
2(1 -1)
1(1)
1(1)
1(1)
1(1)
1(1)
1(1)
1(1)
1(1)
1(1)
1(1)
1(1)
1(1)
1(1)
1(1)
1(1)
1(1)
1(1)
1(1)
1(1)
1(1)
1(1)
1(1)
1(1)
1(1)
1(1)
1(1)
1(1)
1(1)
1(1)
1(1)
1(1)
1(1)
1(1)
1(1)
1(1)
1(1)
1(1)
1(1)
1(1)
1(1)
1(1)
1(1)
1(1)
1(1)
1(1)
1(1)
1(1)
1(1)
1(1)
1(1)
1(1)
1(1)
1(1)
1(1)
1(1)
1(1)
1(1)
1(1)
1(1)
1(1)
1(1)
1(1)
1(1)
1(1)
1(1)
1(1)
1(1)
1(1)
1(1)
1(1)
1(1)
1(1)
1(1)
1(1)
1(1)
1(1)
1(1)
)

// edgeNormals

104
(
2(77 78)
2(79 80)
2(81 82)
2(5 83)
2(84 85)
2(86 87)
2(88 89)
2(90 91)
2(92 93)
2(94 95)
2(96 97)
2(98 99)
2(100 101)
2(102 103)
2(104 105)
2(106 107)
2(108 109)
2(110 111)
2(112 113)
2(114 115)
2(116 117)
2(118 119)
2(120 121)
2(122 123)
2(124 125)
2(126 127)
2(128 129)
1(0)
1(1)
1(2)
1(3)
1(4)
1(5)
1(6)
1(7)
1(8)
1(9)
1(10)
1(11)
1(12)
1(13)
1(14)
1(15)
1(16)
1(17)
1(18)
1(19)
1(20)
1(21)
1(22)
1(23)
1(24)
1(25)
1(26)
1(27)
1(28)
1(29)
1(30)
1(31)
1(32)
1(33)
1(34)
1(35)
1(36)
1(37)
1(38)
1(39)
1(40)
1(41)
1(42)
1(43)
1(44)
1(45)
1(46)
1(47)
1(48)
1(49)
1(50)
1(51)
1(52)
1(53)
1(54)
1(55)
1(56)
1(57)
1(58)
1(59)
1(60)
1(61)
1(62)
1(63)
1(64)
1(65)
1(66)
1(67)
1(68)
1(69)
1(70)
1(71)
1(72)
1(73)
1(74)
1(75)
1(76)
)

// featurePointNormals

16
(
4(81 82 5 83)
4(84 85 86 87)
4(88 89 90 91)
2(5 6)
3(5 83 76)
2(6 12)
2(12 27)
2(15 37)
2(17 20)
2(19 20)
2(25 30)
2(30 45)
2(41 42)
2(45 46)
2(47 48)
2(65 71)
)

// featurePointEdges

16
(
2(3 2)
2(5 4)
2(6 7)
2(32 33)
3(3 32 103)
2(33 39)
2(39 54)
2(42 64)
2(44 47)
2(46 47)
2(52 57)
2(57 72)
2(68 69)
2(72 73)
2(74 75)
2(92 98)
)

// regionEdges

77
(
27
28
29
30
31
32
33
34
35
36
37
38
39
40
41
42
43
44
45
46
47
48
49
50
51
52
53
54
55
56
57
58
59
60
61
62
63
64
65
66
67
68
69
70
71
72
73
74
75
76
77
78
79
80
81
82
83
84
85
86
87
88
89
90
91
92
93
94
95
96
97
98
99
100
101
102
103
)



// ************************************************************************* //
