/*--------------------------------*- C++ -*----------------------------------*\
| =========                 |                                                 |
| \\      /  F ield         | OpenFOAM: The Open Source CFD Toolbox           |
|  \\    /   O peration     | Version:  v2312                                 |
|   \\  /    A nd           | Website:  www.openfoam.com                      |
|    \\/     M anipulation  |                                                 |
\*---------------------------------------------------------------------------*/
FoamFile
{
    version     2.0;
    format      ascii;
    class       vectorField;
    object      kinematicCloudPositions;
}
// * * * * * * * * * * * * * * * * * * * * * * * * * * * * * * * * * * * * * //

(
(-2.73315158e-06 -5.15012218e-06  6.45000000e-09)
(-1.38155306e-06  4.09205871e-06  6.45000000e-09)
( 6.14633707e-06 -1.04023598e-06  6.45000000e-09)
(6.73956205e-07 4.56976365e-06 6.45000000e-09)
(2.55006306e-06 1.74091857e-06 6.45000000e-09)
( 3.17943762e-06 -3.00225889e-06  6.45000000e-09)
( 3.91403566e-06 -1.85250408e-06  6.45000000e-09)
(-7.89605529e-07 -5.83873285e-06  6.45000000e-09)
( 3.86846681e-06 -5.08279765e-06  6.45000000e-09)
(-4.19312029e-06  3.57987665e-06  6.45000000e-09)
(-4.24924327e-06  2.88386410e-06  6.45000000e-09)
(-2.29899585e-06 -2.48367898e-06  6.45000000e-09)
( 4.12403836e-06 -3.54149932e-06  6.45000000e-09)
(3.18519317e-06 5.18007935e-06 6.45000000e-09)
(5.51004315e-07 3.71800229e-07 6.45000000e-09)
(-1.67976384e-06 -3.58967799e-06  6.45000000e-09)
(2.1046857e-07 4.1120757e-06 6.4500000e-09)
(-3.92085152e-06 -2.40437160e-06  6.45000000e-09)
(-1.89218597e-06 -6.14585093e-06  6.45000000e-09)
(5.52878716e-07 5.36714381e-06 6.45000000e-09)
( 2.59994393e-06 -2.67108957e-06  6.45000000e-09)
( 3.43551568e-06 -1.61824355e-06  6.45000000e-09)
(-2.79571639e-06 -2.90240072e-06  6.45000000e-09)
(-3.62009956e-06  3.97564182e-06  6.45000000e-09)
(3.23599509e-07 4.73731397e-06 6.45000000e-09)
(-1.62015022e-06 -3.50967471e-06  6.45000000e-09)
(4.68551184e-06 4.97799225e-07 6.45000000e-09)
(-1.35466125e-06  5.33417888e-06  6.45000000e-09)
( 5.49362454e-07 -1.78536482e-06  6.45000000e-09)
( 1.33524553e-06 -5.31123667e-06  6.45000000e-09)
(2.72372357e-06 5.24840902e-06 6.45000000e-09)
(6.89883672e-08 4.23508841e-06 6.45000000e-09)
( 5.84092415e-06 -1.72617198e-06  6.45000000e-09)
(-5.59144814e-07  3.40486206e-06  6.45000000e-09)
(6.02119873e-06 1.56130605e-06 6.45000000e-09)
( 9.42336307e-07 -2.93461282e-07  6.45000000e-09)
( 2.33263912e-06 -3.55193946e-07  6.45000000e-09)
( 5.33166611e-06 -3.19947992e-06  6.45000000e-09)
(-4.36630958e-06 -4.54862575e-06  6.45000000e-09)
(-1.53430894e-06  2.57282627e-06  6.45000000e-09)
(-1.49455463e-06 -6.20510313e-06  6.45000000e-09)
(-7.48870573e-07 -5.58730641e-06  6.45000000e-09)
(3.99653025e-06 6.81689862e-07 6.45000000e-09)
(5.22373007e-06 1.52122308e-06 6.45000000e-09)
(-3.92589524e-06  4.68288942e-06  6.45000000e-09)
(-2.36922720e-07 -5.31303205e-06  6.45000000e-09)
(-1.27329549e-08  6.19664755e-06  6.45000000e-09)
(-2.55673496e-06  5.71145222e-06  6.45000000e-09)
(3.15267800e-06 4.01251052e-06 6.45000000e-09)
(2.79659559e-06 4.07637292e-06 6.45000000e-09)
( 5.17308697e-06 -2.72568156e-06  6.45000000e-09)
(-2.87933918e-06  4.68458065e-06  6.45000000e-09)
(-8.11313619e-07  3.71323100e-06  6.45000000e-09)
(3.85448229e-07 5.15911565e-06 6.45000000e-09)
( 1.99993205e-06 -1.44620179e-06  6.45000000e-09)
(-7.6798456e-07  3.8796767e-06  6.4500000e-09)
(-2.20244110e-07  2.33679736e-06  6.45000000e-09)
(2.31704033e-06 1.58496937e-06 6.45000000e-09)
( 2.31132973e-06 -4.40064966e-06  6.45000000e-09)
(-4.24394466e-09 -1.86612613e-06  6.45000000e-09)
( 5.90268030e-06 -7.85886081e-07  6.45000000e-09)
( 4.71791343e-06 -3.40591775e-06  6.45000000e-09)
(-3.37286794e-06 -1.84347390e-06  6.45000000e-09)
(-2.43850052e-06  4.08863170e-06  6.45000000e-09)
(4.58290114e-06 4.24681669e-06 6.45000000e-09)
( 1.41127186e-06 -1.76313574e-06  6.45000000e-09)
(-2.90721575e-06 -5.13321223e-07  6.45000000e-09)
(5.40120262e-06 1.86192026e-06 6.45000000e-09)
(-1.83270626e-06 -4.89575079e-06  6.45000000e-09)
(-4.87047428e-06  7.64478090e-08  6.45000000e-09)
( 5.87702086e-06 -7.85541342e-08  6.45000000e-09)
( 1.15335621e-06 -3.79648219e-06  6.45000000e-09)
(-2.87790913e-06  3.25998655e-06  6.45000000e-09)
(-3.90599278e-06 -6.38907445e-07  6.45000000e-09)
(-1.18923219e-06 -3.72766105e-06  6.45000000e-09)
(9.53731956e-07 6.33780023e-06 6.45000000e-09)
(2.86826616e-06 7.64599172e-07 6.45000000e-09)
(3.67251731e-06 2.87259445e-06 6.45000000e-09)
( 5.66416476e-07 -4.17764482e-06  6.45000000e-09)
(-6.15653662e-06 -8.78575179e-07  6.45000000e-09)
(-3.44385777e-06 -5.24253995e-06  6.45000000e-09)
(-4.40011169e-06  5.84154959e-07  6.45000000e-09)
(-2.79902601e-07  5.44853885e-06  6.45000000e-09)
(-1.71157785e-06 -5.51699698e-06  6.45000000e-09)
(-9.38607086e-07 -5.86070585e-06  6.45000000e-09)
( 4.55795149e-06 -1.31790364e-06  6.45000000e-09)
(-1.06897318e-06  1.78635509e-06  6.45000000e-09)
(-1.73450173e-07  5.17591982e-06  6.45000000e-09)
( 1.10951577e-06 -6.07844547e-06  6.45000000e-09)
(-3.72276280e-07  2.86146183e-06  6.45000000e-09)
(8.15776445e-07 3.48777757e-06 6.45000000e-09)
(1.22884810e-06 4.91009615e-06 6.45000000e-09)
(-3.26020643e-06 -1.88042505e-06  6.45000000e-09)
(-1.63954323e-06  7.61979290e-07  6.45000000e-09)
(-3.53674907e-06 -6.52834650e-07  6.45000000e-09)
(3.10698725e-06 2.61638523e-06 6.45000000e-09)
( 1.39679758e-06 -3.73664055e-06  6.45000000e-09)
( 2.94899794e-06 -3.33525956e-06  6.45000000e-09)
(3.17694215e-06 5.47440010e-06 6.45000000e-09)
(-1.38782171e-06 -8.98448359e-07  6.45000000e-09)
(-5.49675325e-06 -9.57051502e-07  6.45000000e-09)
( 3.05318865e-06 -3.97390408e-06  6.45000000e-09)
(-6.18038076e-06  2.24301713e-07  6.45000000e-09)
(-4.61408088e-07 -3.11195545e-06  6.45000000e-09)
(5.69782676e-06 2.43120357e-06 6.45000000e-09)
(-9.54742209e-07  5.11393043e-06  6.45000000e-09)
(-5.65797477e-06 -1.68301791e-06  6.45000000e-09)
( 1.52438879e-06 -5.56691124e-06  6.45000000e-09)
( 3.04980240e-06 -3.92778344e-06  6.45000000e-09)
( 7.87420644e-07 -1.46824401e-06  6.45000000e-09)
(-4.20109798e-06  3.70890975e-06  6.45000000e-09)
(9.70884948e-07 3.94335196e-06 6.45000000e-09)
(-2.69295377e-06  3.58554666e-06  6.45000000e-09)
(-2.50620134e-07  1.53735174e-06  6.45000000e-09)
(-1.78374663e-06 -4.68928116e-06  6.45000000e-09)
(-3.14441489e-06  1.75951652e-06  6.45000000e-09)
(1.85409933e-06 5.14324885e-06 6.45000000e-09)
(3.33728507e-06 1.76745953e-07 6.45000000e-09)
( 2.23184184e-06 -2.51604093e-06  6.45000000e-09)
( 1.21242166e-06 -6.04602570e-06  6.45000000e-09)
(6.76114759e-07 2.45490335e-07 6.45000000e-09)
(-2.39664397e-06 -2.43907230e-06  6.45000000e-09)
(1.62791618e-07 5.92798637e-06 6.45000000e-09)
(-5.52339372e-07  2.12366913e-07  6.45000000e-09)
(1.73718355e-06 3.56683027e-07 6.45000000e-09)
(-1.81555008e-06  2.15008358e-06  6.45000000e-09)
(1.62218815e-07 8.67149632e-08 6.45000000e-09)
(-1.31343945e-06  2.93239610e-06  6.45000000e-09)
(-9.72127474e-07  4.26617411e-06  6.45000000e-09)
(-1.76355232e-06  6.03712803e-06  6.45000000e-09)
(-4.04659243e-06 -1.01751296e-06  6.45000000e-09)
(-8.90437095e-07 -4.15256378e-07  6.45000000e-09)
(-1.29275468e-07  3.36151763e-06  6.45000000e-09)
(-3.45808749e-06 -3.36574683e-06  6.45000000e-09)
(3.31251223e-06 2.03703203e-06 6.45000000e-09)
(2.03932752e-06 1.45108501e-06 6.45000000e-09)
( 1.11357502e-06 -4.64758443e-06  6.45000000e-09)
(5.60462927e-06 1.53321978e-06 6.45000000e-09)
( 1.72395246e-06 -3.67900967e-06  6.45000000e-09)
( 3.37608816e-07 -3.71033648e-06  6.45000000e-09)
(-1.12579481e-06  2.74772271e-06  6.45000000e-09)
(-3.12479026e-06  2.71975580e-06  6.45000000e-09)
(-5.05878978e-06 -1.61103669e-06  6.45000000e-09)
( 5.17094894e-07 -6.37858332e-06  6.45000000e-09)
( 1.61003537e-06 -2.03752376e-06  6.45000000e-09)
( 2.95621702e-06 -7.82450313e-07  6.45000000e-09)
(-5.58036273e-06 -1.82841974e-06  6.45000000e-09)
( 4.45336754e-06 -2.33013731e-06  6.45000000e-09)
(-1.36833636e-06 -5.32756672e-06  6.45000000e-09)
( 1.30620850e-07 -2.73853384e-06  6.45000000e-09)
(2.92050972e-06 5.17484307e-06 6.45000000e-09)
(2.70198733e-06 4.32521161e-06 6.45000000e-09)
(2.77391975e-06 4.00325110e-06 6.45000000e-09)
(-1.68450099e-06 -2.33829034e-07  6.45000000e-09)
(-7.81863627e-07 -3.13550097e-06  6.45000000e-09)
(3.07787228e-06 4.42527827e-06 6.45000000e-09)
(-3.11304423e-06 -4.50415486e-06  6.45000000e-09)
(-8.75153468e-08  3.43611712e-06  6.45000000e-09)
( 7.09657448e-07 -2.38922937e-07  6.45000000e-09)
(-1.18336867e-06 -6.17001927e-06  6.45000000e-09)
( 1.53630964e-06 -2.97644302e-06  6.45000000e-09)
(-2.35481362e-06 -1.12710410e-06  6.45000000e-09)
(-2.56459275e-06 -4.60259092e-06  6.45000000e-09)
(-2.88428619e-06 -1.17781546e-06  6.45000000e-09)
(4.58145474e-06 5.97275564e-07 6.45000000e-09)
(-5.63062131e-06 -2.53891643e-06  6.45000000e-09)
( 2.73119766e-06 -3.59387246e-06  6.45000000e-09)
( 4.35062255e-06 -2.11184526e-06  6.45000000e-09)
(-2.88773527e-06  3.33636266e-06  6.45000000e-09)
( 2.27597381e-06 -4.61992758e-06  6.45000000e-09)
(1.47607532e-06 4.19789063e-06 6.45000000e-09)
( 3.67930155e-06 -2.51947146e-06  6.45000000e-09)
(4.24740151e-06 1.16335356e-06 6.45000000e-09)
(1.89012386e-06 1.88942270e-06 6.45000000e-09)
(-4.59701223e-06  3.55296167e-06  6.45000000e-09)
( 4.25290697e-07 -3.06289294e-06  6.45000000e-09)
( 1.83458421e-06 -1.73800665e-06  6.45000000e-09)
(3.55245096e-06 3.97354173e-06 6.45000000e-09)
(-9.62641029e-07 -6.31813137e-06  6.45000000e-09)
(2.93467542e-06 2.90213680e-06 6.45000000e-09)
(-3.88590581e-06  1.18990581e-06  6.45000000e-09)
(2.22777242e-06 4.93218389e-07 6.45000000e-09)
(-5.66826069e-06  2.22870989e-07  6.45000000e-09)
(-3.87036479e-06 -4.65059188e-06  6.45000000e-09)
(-1.66391531e-06 -6.16221479e-06  6.45000000e-09)
(-1.44867435e-06 -3.56901095e-06  6.45000000e-09)
(-2.87739762e-07 -4.56467802e-06  6.45000000e-09)
(-3.66775668e-06  5.12127988e-07  6.45000000e-09)
(8.92783363e-07 3.80235505e-06 6.45000000e-09)
(2.68474198e-06 5.53929834e-06 6.45000000e-09)
(-3.96116324e-06 -1.84652199e-06  6.45000000e-09)
(3.84032512e-06 1.99237619e-06 6.45000000e-09)
(-6.45231598e-07 -3.15967073e-06  6.45000000e-09)
(-8.43833970e-07  2.79557744e-07  6.45000000e-09)
( 9.79819714e-07 -5.94164971e-06  6.45000000e-09)
(1.84438639e-06 2.13516697e-06 6.45000000e-09)
(4.04288659e-06 2.00986982e-06 6.45000000e-09)
(-2.25096331e-06 -3.10558530e-06  6.45000000e-09)
(-4.55812338e-06 -3.52939327e-06  6.45000000e-09)
(-5.60839508e-06 -4.22345852e-07  6.45000000e-09)
(3.67594632e-08 2.28939434e-06 6.45000000e-09)
(-3.97655521e-06 -5.80878854e-07  6.45000000e-09)
(4.68901471e-06 3.58190558e-06 6.45000000e-09)
(-2.16422034e-06 -3.79617346e-06  6.45000000e-09)
(-1.40557978e-06 -7.95352870e-07  6.45000000e-09)
(4.12078221e-06 3.59281706e-06 6.45000000e-09)
( 4.02359131e-06 -3.76956518e-06  6.45000000e-09)
(-1.91582863e-06  2.73912005e-06  6.45000000e-09)
( 4.86999660e-06 -2.50870818e-06  6.45000000e-09)
( 5.22236911e-06 -1.19036470e-06  6.45000000e-09)
(-1.13175720e-06 -5.50027528e-06  6.45000000e-09)
( 3.45044523e-06 -3.49711668e-06  6.45000000e-09)
(5.27419168e-06 2.52169497e-06 6.45000000e-09)
( 6.28350398e-07 -1.55088142e-06  6.45000000e-09)
( 2.05786448e-06 -2.26212657e-06  6.45000000e-09)
( 2.77799009e-06 -3.74113574e-06  6.45000000e-09)
( 3.44621833e-06 -2.98165963e-06  6.45000000e-09)
(3.91964666e-06 3.14780458e-06 6.45000000e-09)
(1.0650962e-06 2.5603455e-06 6.4500000e-09)
(2.59510829e-06 1.78278527e-06 6.45000000e-09)
(-5.45902960e-06 -1.76312614e-06  6.45000000e-09)
(-4.10224389e-06  9.34208875e-07  6.45000000e-09)
(-1.63763423e-07 -3.17095641e-06  6.45000000e-09)
(-4.61978875e-06  1.65319709e-07  6.45000000e-09)
(-1.29316715e-06 -1.46015231e-06  6.45000000e-09)
( 3.68113491e-07 -6.29499611e-07  6.45000000e-09)
(3.28006773e-06 5.55333388e-06 6.45000000e-09)
( 2.42690571e-06 -2.03186276e-06  6.45000000e-09)
(2.58427936e-06 2.44287205e-06 6.45000000e-09)
(-2.88996467e-06 -3.07562920e-06  6.45000000e-09)
(-3.92881165e-06 -4.15847127e-07  6.45000000e-09)
( 4.31243402e-06 -4.72247500e-06  6.45000000e-09)
(-4.62502011e-06  3.77716641e-06  6.45000000e-09)
(-6.19035716e-07 -1.29981105e-06  6.45000000e-09)
(-3.75160214e-06  4.53956779e-06  6.45000000e-09)
(-7.77963565e-07 -4.51481568e-06  6.45000000e-09)
(-2.57524737e-06  5.59671976e-06  6.45000000e-09)
(-4.62403595e-06 -3.66973565e-06  6.45000000e-09)
(6.08210464e-06 2.00802319e-07 6.45000000e-09)
(-5.68860497e-06  1.69491358e-06  6.45000000e-09)
(-1.26936602e-06  3.48146143e-07  6.45000000e-09)
(2.61829773e-07 4.08343163e-07 6.45000000e-09)
(-6.08703126e-06 -1.50237553e-06  6.45000000e-09)
(-3.06568887e-06  4.32656584e-06  6.45000000e-09)
(-5.39371519e-06  3.25866985e-06  6.45000000e-09)
(-3.00257089e-07 -1.05406362e-06  6.45000000e-09)
(-3.69995998e-06 -2.13279979e-06  6.45000000e-09)
(-1.30788814e-06 -4.71281427e-06  6.45000000e-09)
(4.85374535e-06 3.20154999e-07 6.45000000e-09)
(-4.62100603e-06 -4.26981331e-06  6.45000000e-09)
(-2.60506573e-06 -2.58388187e-06  6.45000000e-09)
(-2.50148760e-06 -1.17949372e-06  6.45000000e-09)
( 3.13525607e-06 -3.23356334e-06  6.45000000e-09)
(-3.94817464e-06  1.09452099e-06  6.45000000e-09)
(-2.55731934e-06 -1.35743633e-06  6.45000000e-09)
( 1.36141111e-06 -6.10546288e-06  6.45000000e-09)
(-1.25694765e-06 -3.85200221e-07  6.45000000e-09)
(-4.28429592e-06  1.80668337e-06  6.45000000e-09)
( 2.33806499e-06 -5.72344485e-06  6.45000000e-09)
(-3.40359111e-06  2.10095029e-06  6.45000000e-09)
(-3.07741144e-06 -4.59335496e-06  6.45000000e-09)
(-4.09614812e-06 -2.91778837e-06  6.45000000e-09)
(1.91417266e-06 4.61350414e-06 6.45000000e-09)
(-2.74043068e-06 -1.45038077e-06  6.45000000e-09)
( 2.99150723e-06 -1.63039198e-06  6.45000000e-09)
(-7.18802672e-08  6.12419892e-06  6.45000000e-09)
(2.35984296e-06 9.14913677e-08 6.45000000e-09)
(4.13706048e-08 4.01475880e-07 6.45000000e-09)
(-1.73293275e-06  4.46175136e-06  6.45000000e-09)
( 1.45578003e-06 -4.81187052e-06  6.45000000e-09)
( 4.30995073e-08 -5.60657139e-06  6.45000000e-09)
(-4.80177251e-06  8.21320114e-07  6.45000000e-09)
(5.05547527e-06 1.00007709e-06 6.45000000e-09)
(-3.51924228e-06 -4.31928401e-07  6.45000000e-09)
(-3.07124747e-06  1.49661707e-06  6.45000000e-09)
(-5.53057426e-06  2.58116381e-06  6.45000000e-09)
(-3.47124224e-06 -3.24492926e-06  6.45000000e-09)
(1.07042412e-06 5.32544075e-06 6.45000000e-09)
(-3.84149563e-06  5.09213729e-06  6.45000000e-09)
(4.17560968e-06 4.65714220e-06 6.45000000e-09)
( 3.18125126e-06 -5.54166386e-06  6.45000000e-09)
(6.06782381e-06 3.70605137e-07 6.45000000e-09)
(3.22032724e-06 3.99818070e-06 6.45000000e-09)
(3.47279810e-06 4.00054774e-06 6.45000000e-09)
(-4.10000387e-06 -4.22548661e-06  6.45000000e-09)
(-5.29943097e-06  2.99396083e-06  6.45000000e-09)
(-1.12442352e-06 -7.63327561e-07  6.45000000e-09)
(-2.94278506e-06 -2.58947907e-06  6.45000000e-09)
(2.64948484e-06 5.33168909e-06 6.45000000e-09)
(-1.73578420e-06  1.01475742e-06  6.45000000e-09)
( 2.82229051e-06 -3.69837441e-06  6.45000000e-09)
( 2.25496913e-06 -2.88803505e-06  6.45000000e-09)
(1.71684375e-06 2.48712736e-06 6.45000000e-09)
(-1.65157279e-06 -4.19740410e-06  6.45000000e-09)
(-6.04266411e-06  1.18960501e-06  6.45000000e-09)
(-2.53240710e-08 -6.08491156e-06  6.45000000e-09)
( 2.86903010e-06 -4.52307432e-06  6.45000000e-09)
( 3.02103594e-06 -4.11879443e-06  6.45000000e-09)
(-2.41093108e-06 -2.21374052e-07  6.45000000e-09)
(5.13094864e-06 2.71986287e-06 6.45000000e-09)
( 3.36407353e-06 -5.48753330e-06  6.45000000e-09)
(-4.13427173e-06 -6.76329134e-07  6.45000000e-09)
(-9.76664633e-07 -1.35874994e-06  6.45000000e-09)
(-5.17309091e-06 -3.11219048e-06  6.45000000e-09)
( 3.73688798e-06 -4.82660906e-06  6.45000000e-09)
(3.04178841e-07 4.50171707e-06 6.45000000e-09)
(-3.23621219e-06 -1.34870288e-06  6.45000000e-09)
(-1.65769193e-06 -5.95274608e-06  6.45000000e-09)
(1.50955175e-06 2.75761512e-06 6.45000000e-09)
(3.45424993e-06 3.14600244e-06 6.45000000e-09)
(-2.35965212e-06 -7.23616231e-07  6.45000000e-09)
(-2.71019268e-07  3.11428363e-06  6.45000000e-09)
(2.11759471e-06 1.80641450e-07 6.45000000e-09)
( 2.19178240e-06 -5.21132463e-06  6.45000000e-09)
( 2.71875448e-08 -6.44270245e-06  6.45000000e-09)
(-1.35413033e-06 -2.16711624e-06  6.45000000e-09)
( 1.76672584e-06 -4.11605417e-06  6.45000000e-09)
(-5.18620763e-06 -1.08164338e-06  6.45000000e-09)
(3.36889609e-06 3.96430154e-06 6.45000000e-09)
( 8.34831367e-07 -2.95789213e-06  6.45000000e-09)
( 3.76398201e-06 -1.94906344e-06  6.45000000e-09)
(-6.93469345e-07  2.81194769e-06  6.45000000e-09)
(-2.54476070e-06 -5.28662016e-06  6.45000000e-09)
(-3.81043278e-06  5.48789827e-07  6.45000000e-09)
(4.95503538e-06 1.62167197e-06 6.45000000e-09)
(-6.22746827e-06 -9.63258825e-07  6.45000000e-09)
(-9.00154508e-07  6.73493157e-08  6.45000000e-09)
(-3.46990808e-06  9.47708232e-07  6.45000000e-09)
(-1.79040849e-06 -8.86253094e-07  6.45000000e-09)
(-3.25909750e-06  1.47086644e-06  6.45000000e-09)
(-2.35498953e-07 -8.99883341e-08  6.45000000e-09)
(-6.10817592e-06  1.06284315e-06  6.45000000e-09)
(-3.31525558e-06  1.56998360e-06  6.45000000e-09)
(-3.59679351e-06 -5.36547572e-07  6.45000000e-09)
(5.48271105e-06 2.89757596e-06 6.45000000e-09)
(1.0006911e-06 2.6160514e-06 6.4500000e-09)
(5.47941764e-06 2.75754928e-06 6.45000000e-09)
(-6.35412631e-07 -5.14205159e-06  6.45000000e-09)
(-1.09963062e-06 -5.34994315e-06  6.45000000e-09)
(-4.30953989e-06  4.04615690e-06  6.45000000e-09)
( 2.56165512e-06 -9.05331743e-07  6.45000000e-09)
( 5.48961014e-06 -2.85624351e-06  6.45000000e-09)
( 5.26371739e-06 -3.57558495e-06  6.45000000e-09)
(2.24665606e-06 4.40766081e-06 6.45000000e-09)
( 4.65683178e-06 -5.54443897e-07  6.45000000e-09)
(1.25426927e-06 3.37468357e-06 6.45000000e-09)
( 1.86111751e-06 -5.29670485e-06  6.45000000e-09)
(-4.92181711e-06 -4.11872305e-06  6.45000000e-09)
(-6.00510453e-06 -1.80734982e-06  6.45000000e-09)
(4.70775842e-06 1.03565511e-06 6.45000000e-09)
(-3.69829917e-06  4.99548033e-06  6.45000000e-09)
( 3.65447852e-07 -7.34187714e-07  6.45000000e-09)
( 1.93814880e-06 -7.50447892e-07  6.45000000e-09)
(-1.25956138e-06  3.94427057e-06  6.45000000e-09)
( 5.76821204e-06 -6.08631963e-08  6.45000000e-09)
(-4.35683144e-06  4.23638227e-06  6.45000000e-09)
( 1.51581605e-06 -1.50519907e-06  6.45000000e-09)
(-1.39231104e-06  5.18229837e-06  6.45000000e-09)
( 3.81042813e-07 -2.53286869e-06  6.45000000e-09)
(2.91462350e-06 3.12762102e-06 6.45000000e-09)
(-4.86419536e-06  2.57166371e-06  6.45000000e-09)
( 4.22388205e-06 -2.97525530e-06  6.45000000e-09)
(-2.27660805e-06  2.35345730e-06  6.45000000e-09)
(5.79168025e-07 3.63115003e-06 6.45000000e-09)
( 5.23262940e-06 -9.54074542e-07  6.45000000e-09)
(3.59285645e-06 3.74264114e-06 6.45000000e-09)
(-5.60826309e-06  5.43726097e-07  6.45000000e-09)
(2.69729400e-06 4.55130917e-08 6.45000000e-09)
(-3.09781848e-06 -2.02409112e-06  6.45000000e-09)
(1.99687428e-06 3.22641416e-06 6.45000000e-09)
(2.80785359e-06 5.90672637e-07 6.45000000e-09)
(-5.96350560e-07 -3.41957195e-06  6.45000000e-09)
(-5.68550218e-06  1.05315016e-06  6.45000000e-09)
(-4.78182615e-06 -2.14163876e-06  6.45000000e-09)
(-4.70864057e-06  3.54340478e-06  6.45000000e-09)
(-4.47872744e-06  3.39846914e-06  6.45000000e-09)
(4.07944705e-06 4.54549128e-06 6.45000000e-09)
( 2.04800081e-07 -4.77066976e-06  6.45000000e-09)
(-5.97765744e-06 -3.23628390e-07  6.45000000e-09)
( 2.72547446e-06 -2.72942132e-06  6.45000000e-09)
(-3.34982920e-06  2.09498577e-06  6.45000000e-09)
(-3.12964502e-06 -4.24775048e-06  6.45000000e-09)
(-2.88367009e-06 -1.93401622e-06  6.45000000e-09)
(-5.42641014e-06 -1.21020253e-06  6.45000000e-09)
(-1.45748088e-06  3.27371265e-06  6.45000000e-09)
(2.18892002e-06 4.30859257e-06 6.45000000e-09)
(5.97484376e-08 1.16441068e-06 6.45000000e-09)
(-9.66956134e-09 -2.65012321e-06  6.45000000e-09)
(-2.85796180e-06  2.16343446e-06  6.45000000e-09)
(-7.48304795e-07 -2.90574505e-06  6.45000000e-09)
( 5.81951514e-06 -1.72415229e-06  6.45000000e-09)
(1.24302517e-06 3.53225491e-06 6.45000000e-09)
(-2.40442757e-06 -3.85840357e-06  6.45000000e-09)
( 4.85660785e-06 -2.30814287e-06  6.45000000e-09)
(-3.42445424e-06  1.50613940e-06  6.45000000e-09)
( 6.33092292e-06 -2.72331686e-08  6.45000000e-09)
(-2.39126570e-06  3.87306622e-06  6.45000000e-09)
( 2.25222619e-06 -5.70757153e-06  6.45000000e-09)
(-2.20822663e-06  3.62859271e-06  6.45000000e-09)
( 3.79471179e-06 -9.18307277e-07  6.45000000e-09)
(-2.95001614e-06 -4.62210695e-06  6.45000000e-09)
(-6.13097513e-07  1.65221496e-06  6.45000000e-09)
(1.37162655e-06 3.12552010e-07 6.45000000e-09)
(4.15648548e-06 1.72620817e-06 6.45000000e-09)
(4.73099726e-06 4.32656659e-06 6.45000000e-09)
(-4.11946129e-06 -4.17659278e-06  6.45000000e-09)
(-2.98430063e-06 -2.11823577e-06  6.45000000e-09)
(-1.97951511e-06  1.54104330e-06  6.45000000e-09)
(-2.90862612e-06  6.49179364e-07  6.45000000e-09)
(2.76134272e-06 1.63880471e-06 6.45000000e-09)
(-3.30601828e-06 -4.88949171e-06  6.45000000e-09)
(-5.80909566e-07 -2.32960155e-06  6.45000000e-09)
(-1.52826189e-06 -1.56246162e-06  6.45000000e-09)
(-8.41300459e-07 -2.82787544e-06  6.45000000e-09)
(-6.09109252e-06 -1.89435577e-06  6.45000000e-09)
(-9.63075977e-07  6.07744301e-06  6.45000000e-09)
( 3.07886935e-06 -2.76234893e-06  6.45000000e-09)
( 3.99360638e-06 -3.88592434e-06  6.45000000e-09)
(-3.20999061e-06  4.13926930e-06  6.45000000e-09)
( 2.71642676e-06 -1.60014510e-06  6.45000000e-09)
(-1.63856063e-06  4.77202407e-06  6.45000000e-09)
(-2.74656803e-08 -6.44602066e-06  6.45000000e-09)
(-1.13336977e-06  3.37309083e-06  6.45000000e-09)
(-4.66525433e-06  2.37210190e-06  6.45000000e-09)
( 2.12388872e-07 -2.01100683e-07  6.45000000e-09)
( 5.40010409e-06 -2.29570673e-07  6.45000000e-09)
(-5.28292640e-07  6.07459709e-06  6.45000000e-09)
( 2.76499293e-07 -4.01986414e-06  6.45000000e-09)
( 6.82890732e-07 -5.56346884e-06  6.45000000e-09)
(-1.85872161e-06 -1.40502667e-06  6.45000000e-09)
(4.35080042e-07 1.18890058e-06 6.45000000e-09)
(-8.07284904e-07 -1.13286576e-06  6.45000000e-09)
(2.71267184e-06 2.65323444e-06 6.45000000e-09)
(-3.47666899e-07  1.39772984e-06  6.45000000e-09)
( 1.16657339e-06 -5.40821880e-06  6.45000000e-09)
(-2.76268960e-07  9.80492855e-09  6.45000000e-09)
(2.47209556e-06 2.49727346e-06 6.45000000e-09)
(-2.89882365e-06 -5.71099246e-06  6.45000000e-09)
( 4.35678013e-06 -8.27383103e-07  6.45000000e-09)
(-5.90651584e-06 -8.37686737e-07  6.45000000e-09)
(-1.85972008e-06  5.97935323e-06  6.45000000e-09)
(-6.10005023e-06  1.82434132e-06  6.45000000e-09)
(1.65166953e-06 2.11328354e-06 6.45000000e-09)
(-5.34621684e-06 -3.48407794e-07  6.45000000e-09)
(-3.68309666e-07 -2.45019267e-06  6.45000000e-09)
( 2.58630406e-06 -2.44260271e-06  6.45000000e-09)
(-1.01944044e-08  1.70435457e-06  6.45000000e-09)
( 2.83153812e-06 -2.04971368e-06  6.45000000e-09)
( 2.98515064e-06 -4.26716565e-06  6.45000000e-09)
(-6.07663923e-06  1.52680131e-06  6.45000000e-09)
(5.06017162e-06 1.27605137e-06 6.45000000e-09)
(-3.73702528e-07 -5.28124697e-06  6.45000000e-09)
(-2.13582811e-06 -3.29227796e-06  6.45000000e-09)
(-4.70596594e-06  2.35507655e-06  6.45000000e-09)
(7.73830127e-07 9.04030731e-07 6.45000000e-09)
( 5.57390391e-06 -1.72152204e-06  6.45000000e-09)
(-4.71260611e-06 -1.72854287e-06  6.45000000e-09)
(-2.55038330e-06 -8.36695425e-07  6.45000000e-09)
(-4.68708175e-06 -3.22617550e-06  6.45000000e-09)
( 5.39658861e-06 -9.71537707e-07  6.45000000e-09)
(1.66046745e-07 5.03016254e-06 6.45000000e-09)
(-5.74523582e-06 -2.25601021e-06  6.45000000e-09)
(2.66710375e-06 1.64162774e-06 6.45000000e-09)
(8.21694302e-07 3.04653288e-06 6.45000000e-09)
( 3.71527664e-06 -2.90990688e-06  6.45000000e-09)
(-3.11036030e-06 -5.32753062e-06  6.45000000e-09)
(-4.56260533e-06 -9.33007938e-08  6.45000000e-09)
(-6.28667747e-06  1.21560290e-06  6.45000000e-09)
(4.50882504e-06 2.40170655e-06 6.45000000e-09)
(-4.18295200e-06  1.33850357e-06  6.45000000e-09)
( 1.40902233e-06 -6.21973808e-06  6.45000000e-09)
(-2.20548185e-06 -4.54706858e-06  6.45000000e-09)
(-9.36034061e-07  5.02411913e-06  6.45000000e-09)
(-2.68588887e-07  3.77418004e-06  6.45000000e-09)
(-4.94672494e-06 -7.11564613e-07  6.45000000e-09)
(-2.73923522e-06 -3.99123663e-06  6.45000000e-09)
(3.98377015e-06 2.17813946e-06 6.45000000e-09)
(-4.78448916e-06 -1.31213698e-06  6.45000000e-09)
( 5.99707678e-06 -2.30930793e-06  6.45000000e-09)
( 1.05088911e-06 -3.05567271e-06  6.45000000e-09)
( 3.24325453e-06 -4.67916521e-06  6.45000000e-09)
( 1.78799556e-07 -2.10411461e-06  6.45000000e-09)
(3.42501760e-06 4.16903447e-06 6.45000000e-09)
(3.48506681e-06 2.11506124e-06 6.45000000e-09)
( 8.14226212e-08 -6.02740158e-06  6.45000000e-09)
(-3.49739197e-06  3.20539904e-06  6.45000000e-09)
(-5.37367342e-06 -9.40828624e-07  6.45000000e-09)
( 4.56034207e-06 -3.52837685e-06  6.45000000e-09)
( 3.79654920e-06 -1.07726954e-06  6.45000000e-09)
(3.43751600e-06 4.59501532e-06 6.45000000e-09)
( 1.49632984e-06 -2.76983655e-06  6.45000000e-09)
(1.40428309e-06 5.79284522e-06 6.45000000e-09)
(-3.40852647e-07  1.69674767e-06  6.45000000e-09)
(-2.82742366e-07 -4.33984759e-06  6.45000000e-09)
(-1.01558633e-06 -1.10940104e-06  6.45000000e-09)
(-5.90036327e-06 -1.41155156e-06  6.45000000e-09)
( 9.47981105e-07 -3.69260047e-06  6.45000000e-09)
( 3.51243162e-06 -1.47428503e-06  6.45000000e-09)
(-1.75947946e-07  1.67267447e-06  6.45000000e-09)
( 5.53176202e-06 -1.92000649e-06  6.45000000e-09)
(4.55937290e-06 2.72844329e-06 6.45000000e-09)
( 1.03467740e-06 -5.44336206e-06  6.45000000e-09)
( 1.86825652e-06 -4.18647735e-06  6.45000000e-09)
( 2.69310874e-06 -5.30439632e-06  6.45000000e-09)
(-7.35268410e-07  6.04878866e-06  6.45000000e-09)
( 2.47451146e-06 -2.71103354e-06  6.45000000e-09)
( 1.52473202e-06 -3.41308222e-06  6.45000000e-09)
(-4.56108058e-06  1.06571693e-06  6.45000000e-09)
( 2.91626828e-06 -1.80560051e-07  6.45000000e-09)
( 2.94817016e-06 -8.83505425e-07  6.45000000e-09)
(-1.61168075e-06  5.71546840e-06  6.45000000e-09)
( 4.71583635e-06 -2.32481150e-06  6.45000000e-09)
( 3.91955004e-06 -3.79486826e-07  6.45000000e-09)
(6.07289530e-06 1.94674354e-06 6.45000000e-09)
(-1.02787111e-06  5.77791086e-06  6.45000000e-09)
(4.15349918e-06 3.61471554e-06 6.45000000e-09)
( 1.74390039e-06 -3.98547904e-06  6.45000000e-09)
(6.65204723e-10 3.78353118e-06 6.45000000e-09)
(-2.87941322e-06 -1.83777504e-06  6.45000000e-09)
( 1.07232174e-08 -3.67668322e-06  6.45000000e-09)
( 2.73443619e-06 -5.14275591e-06  6.45000000e-09)
(-5.79774965e-06  2.24725219e-06  6.45000000e-09)
(-3.34528134e-06  3.88749838e-06  6.45000000e-09)
(-1.83403021e-06 -5.90500385e-06  6.45000000e-09)
(4.21234734e-06 3.52937815e-06 6.45000000e-09)
(3.96605200e-06 4.99988252e-06 6.45000000e-09)
(-1.40485283e-06 -5.11715742e-06  6.45000000e-09)
(-2.63769983e-06 -3.73074519e-06  6.45000000e-09)
(-3.32332091e-07 -3.13303737e-06  6.45000000e-09)
(3.62587806e-06 3.10810241e-06 6.45000000e-09)
(-1.53556806e-06 -1.22055791e-06  6.45000000e-09)
(5.31759099e-06 2.01135083e-06 6.45000000e-09)
( 1.60743513e-06 -5.31623210e-06  6.45000000e-09)
(-2.97177355e-06 -1.68912260e-06  6.45000000e-09)
(2.06430198e-06 2.24100088e-06 6.45000000e-09)
(6.07019153e-06 1.10911916e-07 6.45000000e-09)
(2.94243086e-06 3.51847631e-06 6.45000000e-09)
(-5.42101792e-06  2.80648157e-06  6.45000000e-09)
(5.55209007e-06 9.20489314e-07 6.45000000e-09)
(-2.75761361e-06 -3.70251202e-06  6.45000000e-09)
(4.87399885e-06 2.50971073e-06 6.45000000e-09)
(1.41410003e-06 5.18490263e-06 6.45000000e-09)
(-3.43034930e-06  2.51300252e-06  6.45000000e-09)
(1.71416773e-06 5.41561231e-06 6.45000000e-09)
(-4.40000264e-06  4.09752935e-06  6.45000000e-09)
(4.48074388e-06 1.76927419e-06 6.45000000e-09)
(-2.37589080e-06 -2.06643449e-06  6.45000000e-09)
(-4.53068647e-06  1.41129030e-06  6.45000000e-09)
( 8.27191103e-07 -2.81938440e-06  6.45000000e-09)
( 1.30866307e-06 -2.20388765e-06  6.45000000e-09)
(-2.12731175e-06  3.25838479e-06  6.45000000e-09)
( 5.07522128e-06 -2.75017326e-06  6.45000000e-09)
(6.22669908e-06 1.79403664e-07 6.45000000e-09)
(-4.39197693e-06  2.89039350e-06  6.45000000e-09)
(2.57500549e-06 2.83957887e-06 6.45000000e-09)
( 2.25366217e-06 -4.86276194e-06  6.45000000e-09)
(-4.51145833e-06  2.80721778e-06  6.45000000e-09)
(-3.46950100e-07  1.96651147e-06  6.45000000e-09)
( 1.98874229e-06 -2.83088492e-06  6.45000000e-09)
(-4.85091136e-06 -5.43486100e-07  6.45000000e-09)
( 1.69155626e-06 -4.85357716e-06  6.45000000e-09)
( 2.24006334e-06 -2.91126449e-07  6.45000000e-09)
(-8.44253399e-07  1.75224010e-06  6.45000000e-09)
(9.75711447e-07 4.11157195e-06 6.45000000e-09)
(3.74615402e-06 4.75828677e-06 6.45000000e-09)
(-6.19640304e-06  3.47372158e-07  6.45000000e-09)
(3.44918419e-06 1.19384754e-06 6.45000000e-09)
(6.03567618e-06 1.44382423e-06 6.45000000e-09)
(-4.17211672e-06  3.86527566e-06  6.45000000e-09)
(2.32532769e-07 3.91839772e-06 6.45000000e-09)
( 2.96682461e-06 -4.47979779e-06  6.45000000e-09)
(2.04713033e-06 2.04656924e-06 6.45000000e-09)
(1.64960780e-06 4.37956082e-06 6.45000000e-09)
( 3.02338253e-06 -5.48934656e-06  6.45000000e-09)
(-3.45278964e-06  3.46248358e-06  6.45000000e-09)
( 5.34875917e-06 -1.81855330e-06  6.45000000e-09)
(-2.97445406e-06 -2.54740618e-06  6.45000000e-09)
(-4.99333726e-06  5.16723480e-08  6.45000000e-09)
(-4.07430320e-06  1.92642013e-06  6.45000000e-09)
(-5.11134075e-06 -2.23105013e-06  6.45000000e-09)
(2.2141502e-06 4.5477936e-06 6.4500000e-09)